/*--------------------------------*- C++ -*----------------------------------*\
| =========                 |                                                 |
| \\      /  F ield         | foam-extend: Open Source CFD                    |
|  \\    /   O peration     | Version:     3.2                                |
|   \\  /    A nd           | Web:         http://www.foam-extend.org         |
|    \\/     M anipulation  | For copyright notice see file Copyright         |
\*---------------------------------------------------------------------------*/
FoamFile
{
    version     2.0;
    format      ascii;
    class       polyBoundaryMesh;
    location    "constant/polyMesh";
    object      boundary;
}
// * * * * * * * * * * * * * * * * * * * * * * * * * * * * * * * * * * * * * //

6
(
    top
    {
        type            wall;
        nFaces          10;
        startFace       282;
    }
    right
    {
        type            wall;
        nFaces          18;
        startFace       292;
    }
    bottom
    {
        type            symmetryPlane;
        nFaces          5;
        startFace       310;
    }
    left
    {
        type            symmetryPlane;
        nFaces          13;
        startFace       315;
    }
    void
    {
        type            wall;
        nFaces          10;
        startFace       328;
    }
    frontAndBackPlanes
    {
        type            empty;
        nFaces          310;
        startFace       338;
    }
)

// ************************************************************************* //
