/*--------------------------------*- C++ -*----------------------------------*\
| =========                 |                                                 |
| \\      /  F ield         | foam-extend: Open Source CFD                    |
|  \\    /   O peration     | Version:     3.0                                |
|   \\  /    A nd           | Web:         http://www.extend-project.de       |
|    \\/     M anipulation  |                                                 |
\*---------------------------------------------------------------------------*/
FoamFile
{
    version     2.0;
    format      ascii;
    class       dictionary;
    object      mechanicalProperties;
}
// * * * * * * * * * * * * * * * * * * * * * * * * * * * * * * * * * * * * * //

planeStress     no;

mechanical
(
    steel
    {
        type            neoHookeanElasticMisesPlastic;
        rho             rho [1 -3 0 0 0 0 0] 7.0e-6;
        E               E [1 -1 -2 0 0 0 0] 70e+6;
        nu              nu [0 0 0 0 0 0 0] 0.2;
        "fileName|file" "$FOAM_CASE/constant/plasticStrainVsYieldStress";
        outOfBounds     clamp;

        smoothPressure no;
    }
);

// ************************************************************************* //
